Version 4
SHEET 1 2088 2256
WIRE 560 80 496 80
WIRE 704 80 624 80
WIRE -288 192 -368 192
WIRE -256 192 -288 192
WIRE -176 192 -256 192
WIRE -48 192 -112 192
WIRE 32 192 -48 192
WIRE 128 192 112 192
WIRE 160 192 128 192
WIRE 288 192 224 192
WIRE 496 192 496 80
WIRE 496 192 336 192
WIRE 560 192 496 192
WIRE 704 192 704 80
WIRE 704 192 640 192
WIRE 928 192 704 192
WIRE -752 208 -752 192
WIRE -256 224 -256 192
WIRE -48 224 -48 192
WIRE -752 240 -752 208
WIRE -624 240 -624 192
WIRE 1168 256 1120 256
WIRE 416 272 416 256
WIRE 1120 272 1120 256
WIRE 336 288 336 192
WIRE 384 288 336 288
WIRE 800 288 800 272
WIRE 528 304 448 304
WIRE 560 304 528 304
WIRE 768 304 640 304
WIRE 128 320 128 192
WIRE 160 320 128 320
WIRE 256 320 224 320
WIRE 288 320 288 192
WIRE 384 320 288 320
WIRE 928 320 928 192
WIRE 928 320 832 320
WIRE -752 336 -752 320
WIRE -624 336 -624 320
WIRE 768 336 720 336
WIRE 1168 336 1168 256
WIRE 416 352 416 336
WIRE 800 368 800 352
WIRE 720 400 720 336
WIRE 960 400 720 400
WIRE 1088 400 1040 400
WIRE -368 560 -368 192
WIRE 256 560 256 320
WIRE 256 560 -368 560
WIRE 1728 560 256 560
WIRE 704 608 704 592
WIRE 160 624 128 624
WIRE 368 624 304 624
WIRE 704 624 704 608
WIRE 1728 624 1728 560
WIRE 1744 624 1728 624
WIRE 1808 624 1744 624
WIRE 1856 624 1808 624
WIRE 1360 640 1360 624
WIRE 768 656 768 624
WIRE 1360 656 1360 640
WIRE 1728 672 1728 624
WIRE 240 688 240 672
WIRE -160 704 -432 704
WIRE -96 704 -160 704
WIRE 128 704 128 624
WIRE 128 704 -16 704
WIRE 208 704 128 704
WIRE 368 720 368 624
WIRE 368 720 272 720
WIRE 768 720 768 656
WIRE -160 736 -160 704
WIRE 208 736 176 736
WIRE 528 768 528 304
WIRE 592 768 528 768
WIRE 704 768 704 704
WIRE 704 768 672 768
WIRE 1456 768 1456 752
WIRE 1168 784 1168 464
WIRE 1248 784 1168 784
WIRE 1360 784 1360 736
WIRE 1360 784 1328 784
WIRE 1424 784 1360 784
WIRE 240 800 240 752
WIRE 1568 800 1488 800
WIRE 1584 800 1568 800
WIRE 1728 800 1728 752
WIRE 1728 800 1664 800
WIRE 1424 816 1376 816
WIRE 1456 848 1456 832
WIRE 1728 848 1728 800
WIRE 176 896 176 736
WIRE 592 896 176 896
WIRE 720 896 592 896
WIRE 1376 912 1376 816
WIRE 1424 912 1376 912
WIRE 1568 912 1568 800
WIRE 1568 912 1504 912
WIRE 720 928 720 896
WIRE 1728 960 1728 912
WIRE 368 976 368 720
WIRE 400 976 368 976
WIRE 496 976 480 976
WIRE 1424 976 1376 976
WIRE 1568 976 1568 912
WIRE 1568 976 1504 976
WIRE 592 1024 592 896
WIRE 720 1024 720 992
WIRE 768 1024 768 816
WIRE 768 1024 720 1024
WIRE 1472 1024 1472 1008
WIRE 1376 1040 1376 976
WIRE 1440 1040 1376 1040
WIRE -240 1056 -240 1040
WIRE 720 1056 720 1024
WIRE 1536 1056 1504 1056
WIRE 1440 1072 1376 1072
WIRE -240 1088 -240 1056
WIRE 1472 1104 1472 1088
WIRE 1376 1120 1376 1072
WIRE 32 1152 -160 1152
WIRE 144 1152 112 1152
WIRE 560 1152 144 1152
WIRE 720 1184 720 1136
WIRE 144 1200 144 1152
WIRE 720 1200 720 1184
WIRE -240 1248 -240 1216
WIRE -240 1264 -240 1248
WIRE 1168 1264 1168 784
WIRE 1328 1264 1168 1264
WIRE 1632 1264 1392 1264
WIRE 1728 1264 1632 1264
WIRE 1632 1296 1632 1264
WIRE 592 1312 592 1104
WIRE 976 1312 592 1312
WIRE 432 1376 144 1376
WIRE 800 1392 752 1392
WIRE 912 1392 864 1392
WIRE 1632 1392 1632 1376
WIRE 432 1424 432 1376
WIRE 560 1424 560 1152
WIRE 832 1472 832 1456
WIRE 384 1488 352 1488
WIRE 496 1488 496 976
WIRE 496 1488 480 1488
WIRE 512 1488 496 1488
WIRE 640 1488 608 1488
WIRE 752 1488 752 1392
WIRE 752 1488 640 1488
WIRE 800 1488 752 1488
WIRE 912 1504 912 1392
WIRE 912 1504 864 1504
WIRE 976 1504 976 1312
WIRE 976 1504 912 1504
WIRE 992 1504 976 1504
WIRE 1168 1504 1168 1264
WIRE 1168 1504 1072 1504
WIRE 1728 1504 1168 1504
WIRE 800 1520 752 1520
WIRE 752 1552 752 1520
WIRE 832 1552 832 1536
WIRE 1360 1584 1328 1584
WIRE 1632 1584 1440 1584
WIRE 352 1600 352 1488
WIRE 352 1600 304 1600
WIRE -240 1616 -240 1600
WIRE 304 1632 304 1600
WIRE -240 1648 -240 1616
WIRE 1168 1664 1168 1504
WIRE 1248 1664 1168 1664
WIRE 1328 1664 1328 1584
WIRE 32 1712 -160 1712
WIRE 144 1712 144 1376
WIRE 144 1712 112 1712
WIRE 352 1728 352 1600
WIRE 384 1728 352 1728
WIRE 496 1728 496 1488
WIRE 496 1728 480 1728
WIRE 512 1728 496 1728
WIRE 640 1728 640 1488
WIRE 640 1728 608 1728
WIRE 144 1760 144 1712
WIRE 1424 1760 1424 1728
WIRE 1248 1776 1232 1776
WIRE 1328 1776 1328 1664
WIRE 1392 1776 1328 1776
WIRE 1520 1792 1456 1792
WIRE 1632 1792 1632 1584
WIRE 1632 1792 1600 1792
WIRE 1728 1792 1632 1792
WIRE -240 1808 -240 1776
WIRE 1392 1808 1360 1808
WIRE -240 1824 -240 1808
WIRE 1232 1824 1232 1776
WIRE 1360 1856 1360 1808
WIRE 1424 1856 1424 1824
WIRE 1424 1872 1424 1856
WIRE 432 1888 432 1792
WIRE 496 1888 432 1888
WIRE 560 1888 560 1792
WIRE 560 1888 496 1888
WIRE 0 2080 -96 2080
WIRE 416 2080 0 2080
WIRE 496 2080 496 1888
WIRE 496 2160 496 2080
FLAG -256 304 0
FLAG -48 304 0
FLAG 1360 640 +12V
FLAG -752 336 0
FLAG -624 336 0
FLAG -752 208 +12V
FLAG -624 192 -12V
FLAG 1744 624 ENDOUT
FLAG 1808 624 TRIGIN
FLAG 1728 960 0
FLAG 1376 1120 0
FLAG -160 816 0
FLAG -432 704 IN
FLAG 704 608 +12V
FLAG 768 656 +12V
FLAG 720 1184 -12V
FLAG 304 1632 0
FLAG 752 1552 0
FLAG 496 2240 0
FLAG 0 2080 EXP
FLAG 144 1840 0
FLAG -240 1616 +12V
FLAG -240 1808 -12V
FLAG 144 1280 0
FLAG -240 1056 +12V
FLAG -240 1248 -12V
FLAG 1728 1504 OUT
FLAG 1728 1264 ACOUT
FLAG 1632 1392 0
FLAG 1360 1856 0
FLAG 1232 1824 0
FLAG 1728 1792 BIPOLAR
FLAG 832 1456 +12V
FLAG 832 1552 -12V
FLAG 240 800 -12V
FLAG 240 672 +12V
FLAG 416 256 +12V
FLAG 416 352 -12V
FLAG 800 272 +12V
FLAG 800 368 -12V
FLAG 1456 752 +12V
FLAG 1456 848 -12V
FLAG 1472 1008 +12V
FLAG 1472 1104 -12V
FLAG 1120 272 0
FLAG 1424 1728 +12V
FLAG 1424 1856 -12V
FLAG -288 192 NET1
SYMBOL LM3900 416 240 R0
SYMATTR InstName U1
SYMBOL LM3900 800 256 R0
SYMATTR InstName U2
SYMBOL LM3900 1456 736 R0
SYMATTR InstName U3
SYMBOL TL072 240 656 R0
WINDOW 3 -35 114 Left 2
SYMATTR InstName U4
SYMBOL TL072 832 1440 R0
SYMATTR InstName U5
SYMBOL LM3900 1472 992 R0
SYMATTR InstName U6
SYMBOL res -272 208 R0
SYMATTR InstName R1
SYMATTR Value 100k
SYMBOL res -64 208 R0
SYMATTR InstName R2
SYMATTR Value 100k
SYMBOL cap -112 176 R90
WINDOW 0 0 32 VBottom 2
WINDOW 3 32 32 VTop 2
SYMATTR InstName C1
SYMATTR Value 10n
SYMBOL res 128 176 R90
WINDOW 0 0 56 VBottom 2
WINDOW 3 32 56 VTop 2
SYMATTR InstName R3
SYMATTR Value 33k
SYMBOL diode 160 208 R270
WINDOW 0 32 32 VTop 2
WINDOW 3 0 32 VBottom 2
SYMATTR InstName D1
SYMBOL diode 160 336 R270
WINDOW 0 32 32 VTop 2
WINDOW 3 0 32 VBottom 2
SYMATTR InstName D2
SYMBOL res 656 288 R90
WINDOW 0 0 56 VBottom 2
WINDOW 3 32 56 VTop 2
SYMATTR InstName R4
SYMATTR Value 820k
SYMBOL res 656 176 R90
WINDOW 0 0 56 VBottom 2
WINDOW 3 32 56 VTop 2
SYMATTR InstName R5
SYMATTR Value 820k
SYMBOL cap 624 64 R90
WINDOW 0 0 32 VBottom 2
WINDOW 3 32 32 VTop 2
SYMATTR InstName C2
SYMATTR Value 47p
SYMBOL res 1056 384 R90
WINDOW 0 0 56 VBottom 2
WINDOW 3 32 56 VTop 2
SYMATTR InstName R6
SYMATTR Value 220k
SYMBOL res 1344 768 R90
WINDOW 0 0 56 VBottom 2
WINDOW 3 32 56 VTop 2
SYMATTR InstName R9
SYMATTR Value 330k
SYMBOL res 1376 752 R180
WINDOW 0 36 76 Left 2
WINDOW 3 36 40 Left 2
SYMATTR InstName R10
SYMATTR Value 10m
SYMBOL voltage -752 224 R0
SYMATTR InstName V1
SYMATTR Value 12
SYMBOL voltage -624 224 R0
SYMATTR InstName V2
SYMATTR Value -12
SYMBOL res 1680 784 R90
WINDOW 0 0 56 VBottom 2
WINDOW 3 32 56 VTop 2
SYMATTR InstName R11
SYMATTR Value 2.2k
SYMBOL res 1744 768 R180
WINDOW 0 36 76 Left 2
WINDOW 3 36 40 Left 2
SYMATTR InstName R12
SYMATTR Value 1k
SYMBOL res 1520 896 R90
WINDOW 0 0 56 VBottom 2
WINDOW 3 32 56 VTop 2
SYMATTR InstName R13
SYMATTR Value 1m
SYMBOL zener 1744 912 R180
WINDOW 0 24 64 Left 2
WINDOW 3 24 0 Left 2
SYMATTR InstName D4
SYMATTR Value 1N750
SYMBOL res 0 688 R90
WINDOW 0 0 56 VBottom 2
WINDOW 3 32 56 VTop 2
SYMATTR InstName R14
SYMATTR Value 100k
SYMBOL res -144 832 R180
WINDOW 0 36 76 Left 2
WINDOW 3 36 40 Left 2
SYMATTR InstName R15
SYMATTR Value 100k
SYMBOL cap 224 608 R90
WINDOW 0 0 32 VBottom 2
WINDOW 3 32 32 VTop 2
SYMATTR InstName C3
SYMATTR Value 47p
SYMBOL res 320 608 R90
WINDOW 0 0 56 VBottom 2
WINDOW 3 32 56 VTop 2
SYMATTR InstName R16
SYMATTR Value 10m
SYMBOL res 496 960 R90
WINDOW 0 0 56 VBottom 2
WINDOW 3 32 56 VTop 2
SYMATTR InstName R17
SYMATTR Value 8.2k
SYMBOL pnp 704 816 M180
SYMATTR InstName Q1
SYMATTR Value 2N3906
SYMBOL res 688 752 R90
WINDOW 0 0 56 VBottom 2
WINDOW 3 32 56 VTop 2
SYMATTR InstName R18
SYMATTR Value 220k
SYMBOL res 720 720 R180
WINDOW 0 36 76 Left 2
WINDOW 3 36 40 Left 2
SYMATTR InstName R19
SYMATTR Value 68k
SYMBOL diode 704 928 R0
SYMATTR InstName D3
SYMBOL res 736 1152 R180
WINDOW 0 36 76 Left 2
WINDOW 3 36 40 Left 2
SYMATTR InstName R20
SYMATTR Value 220k
SYMBOL res 608 1120 R180
WINDOW 0 36 76 Left 2
WINDOW 3 36 40 Left 2
SYMATTR InstName R21
SYMATTR Value 220k
SYMBOL npn 384 1424 M90
SYMATTR InstName Q2
SYMATTR Value 2N3904
SYMBOL pnp 608 1424 R90
SYMATTR InstName Q3
SYMATTR Value 2N3906
SYMBOL npn 608 1792 M270
SYMATTR InstName Q4
SYMATTR Value 2N3904
SYMBOL pnp 384 1792 R270
SYMATTR InstName Q5
SYMATTR Value 2N3906
SYMBOL cap 864 1376 R90
WINDOW 0 0 32 VBottom 2
WINDOW 3 32 32 VTop 2
SYMATTR InstName C4
SYMATTR Value 10n
SYMBOL res 1088 1488 R90
WINDOW 0 0 56 VBottom 2
WINDOW 3 32 56 VTop 2
SYMATTR InstName R22
SYMATTR Value 100
SYMBOL res 512 2256 R180
WINDOW 0 36 76 Left 2
WINDOW 3 36 40 Left 2
SYMATTR InstName R23
SYMATTR Value 1.8k
SYMBOL res 512 2064 R90
WINDOW 0 0 56 VBottom 2
WINDOW 3 32 56 VTop 2
SYMATTR InstName 82k
SYMATTR Value 82k
SYMBOL res 160 1856 R180
WINDOW 0 36 76 Left 2
WINDOW 3 36 40 Left 2
SYMATTR InstName R24
SYMATTR Value 2.2k
SYMBOL res 128 1696 R90
WINDOW 0 0 56 VBottom 2
WINDOW 3 32 56 VTop 2
SYMATTR InstName R25
SYMATTR Value 82k
SYMBOL Potentiometer -240 1712 R0
SYMATTR InstName U7
SYMATTR SpiceLine RES=100k POS=0
SYMBOL res 160 1296 R180
WINDOW 0 36 76 Left 2
WINDOW 3 36 40 Left 2
SYMATTR InstName R26
SYMATTR Value 2.2k
SYMBOL res 128 1136 R90
WINDOW 0 0 56 VBottom 2
WINDOW 3 32 56 VTop 2
SYMATTR InstName R27
SYMATTR Value 82k
SYMBOL Potentiometer -240 1152 R0
SYMATTR InstName U8
SYMATTR SpiceLine RES=100k POS=0
SYMBOL polcap 1328 1280 R270
WINDOW 0 32 32 VTop 2
WINDOW 3 0 32 VBottom 2
SYMATTR InstName C5
SYMATTR Value 47µF
SYMBOL res 1648 1392 R180
WINDOW 0 36 76 Left 2
WINDOW 3 36 40 Left 2
SYMATTR InstName R28
SYMATTR Value 1m
SYMBOL Opamps/OP37 1424 1728 R0
SYMATTR InstName U9
SYMBOL res 1344 1648 R90
WINDOW 0 0 56 VBottom 2
WINDOW 3 32 56 VTop 2
SYMATTR InstName R29
SYMATTR Value 100k
SYMBOL res 1456 1568 R90
WINDOW 0 0 56 VBottom 2
WINDOW 3 32 56 VTop 2
SYMATTR InstName R30
SYMATTR Value 100k
SYMBOL res 1344 1760 R90
WINDOW 0 0 56 VBottom 2
WINDOW 3 32 56 VTop 2
SYMATTR InstName R31
SYMATTR Value 620k
SYMBOL res 1616 1776 R90
WINDOW 0 0 56 VBottom 2
WINDOW 3 32 56 VTop 2
SYMATTR InstName R32
SYMATTR Value 330
SYMBOL Potentiometer 1168 400 M0
SYMATTR InstName U10
SYMATTR SpiceLine RES=100K POS=0.2
SYMBOL res 1520 960 R90
WINDOW 0 0 56 VBottom 2
WINDOW 3 32 56 VTop 2
SYMATTR InstName R7
SYMATTR Value 1m
TEXT -184 1608 Left 2 ;RISE RATE
TEXT -184 1048 Left 2 ;FALL RATE
TEXT 1768 352 Left 2 !.tran .1ns 100ns
