Version 4
SHEET 1 1516 844
WIRE 16 32 16 16
WIRE 112 32 112 16
WIRE 16 48 16 32
WIRE 112 48 112 32
WIRE 16 144 16 128
WIRE 112 144 112 128
WIRE 256 400 224 400
WIRE 512 400 336 400
WIRE 224 416 224 400
WIRE 1216 432 1216 400
WIRE 512 448 512 400
WIRE 1216 464 1216 432
WIRE 160 512 160 496
WIRE 688 592 688 576
WIRE 1216 608 1216 544
WIRE 688 624 688 592
WIRE 160 640 160 592
WIRE 352 640 160 640
WIRE 512 640 512 528
WIRE 512 640 432 640
WIRE 576 640 512 640
WIRE 656 640 576 640
WIRE 864 656 720 656
WIRE 992 656 864 656
WIRE 1056 656 992 656
WIRE 1152 656 1056 656
WIRE 656 672 592 672
WIRE 160 688 160 640
WIRE 864 688 864 656
WIRE 992 688 992 656
WIRE 592 720 592 672
WIRE 688 720 688 688
WIRE 688 736 688 720
WIRE 160 784 160 768
WIRE 512 800 512 640
WIRE 864 800 864 752
WIRE 864 800 512 800
WIRE 992 800 992 752
WIRE 992 800 864 800
WIRE 1216 800 1216 704
WIRE 1216 800 992 800
FLAG 16 144 0
FLAG 112 144 0
FLAG 16 32 V-
FLAG 112 32 V+
FLAG 160 496 V+
FLAG 160 784 V-
FLAG 224 416 0
FLAG 592 720 0
FLAG 688 592 V+
FLAG 688 720 V-
DATAFLAG 576 640 "$"
DATAFLAG 1216 432 "$"
DATAFLAG 1056 656 "$"
SYMBOL voltage 16 32 R0
SYMATTR InstName V1
SYMATTR Value -12
SYMBOL voltage 112 32 R0
SYMATTR InstName V2
SYMATTR Value 12
SYMBOL res 144 672 R0
SYMATTR InstName RV2B
SYMATTR Value 50000
SYMBOL res 448 624 R90
WINDOW 0 0 56 VBottom 2
WINDOW 3 32 56 VTop 2
SYMATTR InstName R10
SYMATTR Value 60400
SYMBOL voltage 352 400 R90
WINDOW 0 -32 56 VBottom 2
WINDOW 3 32 56 VTop 2
SYMATTR InstName CV
SYMATTR Value 5
SYMBOL res 496 432 R0
SYMATTR InstName R5
SYMATTR Value 20000
SYMBOL TL072 688 592 R0
SYMATTR InstName U2
SYMBOL cap 848 688 R0
WINDOW 3 115 56 Invisible 2
SYMATTR InstName C3
SYMATTR Value 0.00000000033
SYMBOL diode 976 688 R0
SYMATTR InstName D1
SYMBOL pnp 1152 608 R0
SYMATTR InstName Q1
SYMBOL res 1200 448 R0
SYMATTR InstName R9
SYMATTR Value 10000
SYMBOL res 144 496 R0
SYMATTR InstName RV2A
SYMATTR Value 50000
TEXT 1480 528 Left 2 !.op
