Version 4
SHEET 1 1236 764
WIRE -272 112 -272 80
WIRE -176 112 -176 80
WIRE 752 128 608 128
WIRE 176 160 80 160
WIRE 176 192 176 160
WIRE 672 208 672 176
WIRE -272 224 -272 192
WIRE -176 224 -176 192
WIRE 608 224 608 128
WIRE 640 224 608 224
WIRE 752 240 752 128
WIRE 752 240 704 240
WIRE 944 240 752 240
WIRE 1056 240 1024 240
WIRE 416 256 256 256
WIRE 480 256 416 256
WIRE 592 256 560 256
WIRE 640 256 592 256
WIRE 592 288 592 256
WIRE 672 304 672 272
WIRE 592 384 592 368
WIRE -176 448 -208 448
WIRE -16 448 -96 448
WIRE 80 448 80 160
WIRE 80 448 64 448
WIRE 128 448 80 448
WIRE -208 480 -208 448
WIRE 960 496 944 496
WIRE 976 496 960 496
WIRE 256 512 208 512
WIRE 416 512 256 512
WIRE 480 512 416 512
WIRE 592 512 560 512
WIRE 624 512 592 512
WIRE 656 512 624 512
WIRE 592 560 592 512
WIRE 832 592 688 592
WIRE 752 624 752 608
WIRE 688 640 688 592
WIRE 720 640 688 640
WIRE 592 656 592 640
WIRE 832 656 832 592
WIRE 832 656 784 656
WIRE 864 656 864 496
WIRE 864 656 832 656
WIRE 656 672 656 512
WIRE 720 672 656 672
WIRE 128 688 128 576
WIRE 752 704 752 688
FLAG -208 480 0
FLAG -272 224 0
FLAG -176 224 0
FLAG -272 80 +12V
FLAG -176 80 -12V
FLAG 592 656 0
FLAG 128 688 0
FLAG 592 384 0
FLAG 1056 240 PHONES
FLAG 976 496 LINE
FLAG 416 320 0
FLAG 416 576 0
FLAG 176 320 0
DATAFLAG 960 496 "$"
DATAFLAG 624 512 "$"
DATAFLAG 256 512 "$"
SYMBOL voltage -272 96 R0
SYMATTR InstName V1
SYMATTR Value 12
SYMBOL voltage -176 96 R0
SYMATTR InstName V2
SYMATTR Value -12
SYMBOL voltage -80 448 R90
WINDOW 0 -32 56 VBottom 2
WINDOW 3 32 56 VTop 2
WINDOW 123 54 56 VTop 2
SYMATTR InstName V3
SYMATTR Value SINE(0 5 120)
SYMATTR Value2 AC 5
SYMBOL res 80 432 R90
WINDOW 0 0 56 VBottom 2
WINDOW 3 32 56 VTop 2
SYMATTR InstName R1
SYMATTR Value 1k
SYMBOL res 608 656 R180
WINDOW 0 36 76 Left 2
WINDOW 3 36 40 Left 2
SYMATTR InstName R2
SYMATTR Value 18k
SYMBOL res 576 496 R90
WINDOW 0 0 56 VBottom 2
WINDOW 3 32 56 VTop 2
SYMATTR InstName R3
SYMATTR Value 100k
SYMBOL res 576 240 R90
WINDOW 0 0 56 VBottom 2
WINDOW 3 32 56 VTop 2
SYMATTR InstName R4
SYMATTR Value 100k
SYMBOL res 608 384 R180
WINDOW 0 36 76 Left 2
WINDOW 3 36 40 Left 2
SYMATTR InstName R5
SYMATTR Value 18k
SYMBOL res 1040 224 R90
WINDOW 0 0 56 VBottom 2
WINDOW 3 32 56 VTop 2
SYMATTR InstName R6
SYMATTR Value 10
SYMBOL res 960 480 R90
WINDOW 0 0 56 VBottom 2
WINDOW 3 32 56 VTop 2
SYMATTR InstName R7
SYMATTR Value 330
SYMBOL TL072 672 176 R0
SYMATTR InstName U1
SYMBOL cap 400 256 R0
SYMATTR InstName C1
SYMATTR Value 100n
SYMBOL TL072 752 592 R0
SYMATTR InstName U2
SYMBOL cap 400 512 R0
SYMATTR InstName C2
SYMATTR Value 100n
SYMBOL Potentiometer 176 256 R0
SYMATTR InstName U3
SYMATTR SpiceLine RES=10k POS=1
SYMBOL Potentiometer 128 512 R0
SYMATTR InstName U4
SYMATTR SpiceLine RES=100K POS=1
TEXT -264 -24 Left 2 !.tran 0.5 0.1
