Version 4
SHEET 1 1680 680
WIRE 144 -32 16 -32
WIRE -96 -16 -96 -32
WIRE 16 -16 16 -32
WIRE 1040 -16 1040 -48
WIRE -96 0 -96 -16
WIRE 16 0 16 -16
WIRE 144 0 144 -32
WIRE 1040 0 1040 -16
WIRE -96 96 -96 80
WIRE 16 96 16 80
WIRE 928 96 896 96
WIRE 1040 96 1040 80
WIRE 1040 96 992 96
WIRE 896 112 896 96
WIRE 1184 112 1152 112
WIRE 1392 112 1264 112
WIRE 368 144 368 128
WIRE 1040 176 1040 96
WIRE 1152 208 1152 112
WIRE 1184 208 1152 208
WIRE 1296 208 1248 208
WIRE 480 224 368 224
WIRE 560 224 480 224
WIRE 608 224 560 224
WIRE 768 224 688 224
WIRE 816 224 768 224
WIRE 880 224 816 224
WIRE 976 224 880 224
WIRE 272 240 272 208
WIRE 768 256 768 224
WIRE 880 256 880 224
WIRE 1232 256 1216 256
WIRE 1248 256 1232 256
WIRE 1152 272 1152 208
WIRE 1184 272 1152 272
WIRE -224 288 -240 288
WIRE -96 288 -144 288
WIRE -32 288 -96 288
WIRE 48 288 -32 288
WIRE 208 288 192 288
WIRE 240 288 208 288
WIRE 1296 288 1296 208
WIRE 1296 288 1248 288
WIRE 1392 288 1392 112
WIRE 1392 288 1376 288
WIRE 1408 288 1392 288
WIRE 1584 288 1472 288
WIRE 1616 288 1584 288
WIRE -240 304 -240 288
WIRE 1040 304 1040 272
WIRE 1056 304 1040 304
WIRE 1184 304 1056 304
WIRE 272 320 272 304
WIRE 272 336 272 320
WIRE 480 336 480 288
WIRE 880 336 880 320
WIRE 1216 336 1216 320
WIRE 1216 352 1216 336
WIRE 368 368 368 320
WIRE 208 400 208 288
WIRE 240 400 208 400
WIRE 368 400 368 368
WIRE 368 400 320 400
WIRE 208 496 208 400
WIRE 240 496 208 496
WIRE 368 496 368 400
WIRE 368 496 304 496
WIRE 368 592 368 576
FLAG -96 96 0
FLAG 16 96 0
FLAG 16 -16 V-
FLAG -96 -16 V+
FLAG 144 64 0
FLAG -240 304 0
FLAG -32 368 0
FLAG 368 144 V+
FLAG 368 592 V-
FLAG 480 336 0
FLAG 768 336 0
FLAG 880 336 0
FLAG 1040 -16 V+
FLAG 896 112 0
FLAG 1216 336 V+
FLAG 1504 256 REVOUT
FLAG 272 208 V-
FLAG 272 320 V+
FLAG 1232 256 V-
DATAFLAG -96 288 "$"
DATAFLAG 1584 288 "$"
DATAFLAG 368 368 "$"
DATAFLAG 1056 304 "$"
DATAFLAG 560 224 "$"
DATAFLAG 816 224 "$"
SYMBOL voltage -96 -16 R0
SYMATTR InstName V1
SYMATTR Value 12
SYMBOL voltage 16 -16 R0
SYMATTR InstName V2
SYMATTR Value -12
SYMBOL cap 128 0 R0
SYMATTR InstName C1
SYMATTR Value 10n
SYMBOL voltage -128 288 R90
WINDOW 0 -32 56 VBottom 2
WINDOW 3 32 56 VTop 2
SYMATTR InstName V3
SYMATTR Value SINE(0 3 110 0 1 0)
SYMBOL res -48 272 R0
SYMATTR InstName R1
SYMATTR Value 100k
SYMBOL cap 112 272 R90
WINDOW 0 0 32 VBottom 2
WINDOW 3 32 32 VTop 2
SYMATTR InstName C2
SYMATTR Value 10n
SYMBOL res 208 272 R90
WINDOW 0 0 56 VBottom 2
WINDOW 3 32 56 VTop 2
SYMATTR InstName R2
SYMATTR Value 1m
SYMBOL res 336 384 R90
WINDOW 0 0 56 VBottom 2
WINDOW 3 32 56 VTop 2
SYMATTR InstName R3
SYMATTR Value 100k
SYMBOL cap 304 480 R90
WINDOW 0 0 32 VBottom 2
WINDOW 3 32 32 VTop 2
SYMATTR InstName C3
SYMATTR Value 10pF
SYMBOL res 352 480 R0
SYMATTR InstName R4
SYMATTR Value 220
SYMBOL npn 304 224 R0
SYMATTR InstName Q1
SYMATTR Value 2N3565
SYMBOL res 352 128 R0
SYMATTR InstName R5
SYMATTR Value 6.8k
SYMBOL cap 464 224 R0
SYMATTR InstName C4
SYMATTR Value 10n
SYMBOL ind 592 240 R270
WINDOW 0 32 56 VTop 2
WINDOW 3 5 56 VBottom 2
SYMATTR InstName L1
SYMATTR Value 0.304715
SYMATTR SpiceLine Rser=1925
SYMBOL res 752 240 R0
SYMATTR InstName R6
SYMATTR Value 10k
SYMBOL cap 864 256 R0
SYMATTR InstName C5
SYMATTR Value 2.2nF
SYMBOL pnp 976 272 M180
WINDOW 0 54 36 Left 2
WINDOW 3 50 69 Left 2
SYMATTR InstName Q2
SYMATTR Value 2N4249
SYMBOL res 1024 -16 R0
SYMATTR InstName R7
SYMATTR Value 100k
SYMBOL polcap 992 80 R90
WINDOW 0 0 32 VBottom 2
WINDOW 3 32 32 VTop 2
SYMATTR InstName C6
SYMATTR Value 22µ
SYMATTR Description Capacitor
SYMATTR Type cap
SYMATTR SpiceLine Rser=1 Lser=0 mfg="Nichicon" pn="UPG1J220MPH" type="Al electrolytic"
SYMBOL cap 1248 192 R90
WINDOW 0 0 32 VBottom 2
WINDOW 3 22 29 VTop 2
SYMATTR InstName C7
SYMATTR Value 47pF
SYMBOL polcap 1408 272 M90
WINDOW 0 0 32 VBottom 2
WINDOW 3 32 32 VTop 2
SYMATTR InstName C8
SYMATTR Value 22µ
SYMATTR Description Capacitor
SYMATTR Type cap
SYMATTR SpiceLine Rser=1 Lser=0 mfg="Nichicon" pn="UPG1J220MPH" type="Al electrolytic"
SYMBOL res 1280 96 R90
WINDOW 0 0 56 VBottom 2
WINDOW 3 32 56 VTop 2
SYMATTR InstName R8
SYMATTR Value 100k
SYMBOL res 1392 272 R90
WINDOW 0 0 56 VBottom 2
WINDOW 3 32 56 VTop 2
SYMATTR InstName R9
SYMATTR Value 330
SYMBOL LM3900 272 336 M180
WINDOW 3 -92 117 Left 2
SYMATTR InstName X3
SYMBOL LM3900 1216 352 M180
WINDOW 3 3 8 Left 2
SYMATTR InstName X1
TEXT 1184 -464 Left 2 !.op
